; Filename: Test networks/Net3.inp
; WNTR: 0.4.2
; Created: 2022-08-22 12:41:45
[TITLE]
EPANET Example Network 3, updated to include longer duration
Example showing how the percent of Lake water in a dual-source
system changes over time.

[JUNCTIONS]
;ID                      Elevation       Demand Pattern                 
 10                               147               0 1                          ;
 20                               129               0 1                          ;
 40                             131.9               0 1                          ;
 50                             116.5               0 1                          ;
 60                                 0               0 1                          ;
 601                                0               0 1                          ;
 61                                 0   0.03151009015 1                          ;
 101                               42    518.02873971 1                          ;
 105                             28.5     185.7089984 1                          ;
 111                               10    182.30385493 1                          ;
 113                                2           20.01 1                          ;
 115                               14    56.401001596 1                          ;
 117                             13.6          117.71 1                          ;
 119                                2    224.14748836 1                          ;
 120                                0               0 1                          ;
 121                               -2     42.59848991 1                          ;
 125                               11    46.766197936 1                          ;
 127                               56    83.800338362 1                          ;
 151                             33.5     250.2834637 1                          ;
 161                                4    69.737349331 1                          ;
 169                               -5           14.56 1                          ;
 171                               -4           39.34 1                          ;
 179                                8    41.429650287 1                          ;
 183                               11               0 1                          ;
 185                               16           25.65 1                          ;
 187                             12.5               0 1                          ;
 189                                4          107.92 1                          ;
 191                               25    95.097405364 1                          ;
 193                               18           71.31 1                          ;
 199                               -2    135.06489736 1                          ;
 205                               21           65.36 1                          ;
 207                                9    112.08371779 1                          ;
 239                               13    306.42488195 1                          ;
 247                               18    70.491400253 1                          ;
 249                               18    21.678828477 1                          ;
 255                               27    97.391171523 1                          ;
 257                               17               0 1                          ;
 261                                0               0 1                          ;
 263                                0               0 1                          ;
 265                                0    3.1751623079 1                          ;
 267                               21               0 1                          ;
 269                                0               0 1                          ;
 271                                6    17.740349713 1                          ;
 273                                8               0 1                          ;
 275                               10     29.86510264 1                          ;

[RESERVOIRS]
;ID                                   Head                  Pattern
 River                            220                            ;
 Lake                             167                            ;

[TANKS]
;ID                              Elevation           Init Level            Min Level            Max Level             Diameter           Min Volume Volume Curve         Overflow            
 1                              131.9            13.1             0.1            32.1              85               0                                             ;
 2                              116.5            23.5             6.5            40.3              50               0                                             ;
 3                                129              29               4            35.5             164               0                                             ;

[PIPES]
;ID                   Node1                Node2                              Length             Diameter            Roughness           Minor Loss               Status
 20                   3                    20                                99              99             199               0                 Open   ;
 40                   1                    40                                99              99             199               0                 Open   ;
 50                   2                    50                                99              99             199               0                 Open   ;
 60                   River                60                              1231              24             140               0                 Open   ;
 101                  10                   101                            14200              18             110               0                 Open   ;
 105                  101                  105                             2540              12             130               0                 Open   ;
 112                  115                  111                             1160              12             130               0                 Open   ;
 113                  111                  113                             1680              12             130               0                 Open   ;
 114                  115                  113                             2000               8             130               0                 Open   ;
 116                  113                  193                             1660              12             130               0                 Open   ;
 117                  263                  105                             2725              12             130               0                 Open   ;
 119                  115                  117                             2180              12             130               0                 Open   ;
 120                  119                  120                              730              12             130               0                 Open   ;
 121                  120                  117                             1870              12             130               0                 Open   ;
 122                  121                  120                             2050               8             130               0                 Open   ;
 123                  121                  119                             2000              30             141               0                 Open   ;
 129                  121                  125                              930              24             130               0                 Open   ;
 131                  125                  127                             3240              24             130               0                 Open   ;
 133                  20                   127                              785              20             130               0                 Open   ;
 171                  119                  151                             3460              12             130               0                 Open   ;
 183                  265                  169                              590              30             141               0                 Open   ;
 187                  169                  171                             1270              30             141               0                 Open   ;
 191                  271                  171                              760              24             130               0                 Open   ;
 199                  179                  183                              210              12             130               0                 Open   ;
 201                  40                   179                             1190              12             130               0                 Open   ;
 203                  183                  185                              510               8             130               0                 Open   ;
 207                  189                  183                             1350              12             130               0                 Open   ;
 209                  189                  187                              500               8             130               0                 Open   ;
 211                  169                  269                              646              12             130               0                 Open   ;
 213                  191                  187                             2560              12             130               0                 Open   ;
 215                  267                  189                             1230              12             130               0                 Open   ;
 217                  191                  193                              520              12             130               0                 Open   ;
 235                  199                  273                              725              12             130               0                 Open   ;
 237                  205                  207                             1200              12             130               0                 Open   ;
 239                  275                  207                             1430              12             130               0                 Open   ;
 283                  239                  249                              430              12             130               0                 Open   ;
 285                  247                  249                               10              12             130               0                 Open   ;
 287                  247                  255                             1390              10             130               0                 Open   ;
 289                  50                   255                              925              10             130               0                 Open   ;
 297                  120                  257                              645               8             130               0                 Open   ;
 303                  257                  261                             1400               8             130               0                 Open   ;
 305                  117                  261                              645              12             130               0                 Open   ;
 307                  261                  263                              350              12             130               0                 Open   ;
 309                  265                  267                             1580               8             130               0                 Open   ;
 311                  193                  267                             1170              12             130               0                 Open   ;
 313                  269                  189                              646              12             130               0                 Open   ;
 317                  273                  275                             2230               8             130               0                 Open   ;
 319                  273                  205                              645              12             130               0                 Open   ;
 325                  269                  271                             1290               8             130               0                 Open   ;
 330                  60                   601                                1              30             140               0               Closed   ;
 333                  601                  61                                 1              30             140               0                 Open   ;
 new-pipe-2           105                  115                     1843.6905983    8.3672733356             100               0                 Open   ;
 new-pipe-3           111                  101                     1843.6905983    12.371236938             100               0                 Open   ;
 new-pipe-4           121                  61                      1843.6905983     17.53632869             100               0                 Open   ;
 new-pipe-10          151                  127                     1843.6905983    5.1499901926             100               0                 Open   ;
 new-pipe-11          151                  125                     1843.6905983     7.290021091             100               0                 Open   ;
 new-pipe-13          161                  119                     1843.6905983    26.002920058             100               0                 Open   ;
 new-pipe-14          161                  265                     1843.6905983     35.06333268             100               0                 Open   ;
 new-pipe-15          171                  199                     1843.6905983    23.308372697             100               0                 Open   ;
 new-pipe-17          271                  179                     1843.6905983     28.47356566             100               0                 Open   ;
 new-pipe-18          185                  205                     1843.6905983    10.695413802             100               0                 Open   ;
 new-pipe-19          193                  161                     1843.6905983    8.4097611789             100               0                 Open   ;
 new-pipe-20          191                  111                     1843.6905983    11.397557277             100               0                 Open   ;
 new-pipe-21          199                  275                     1843.6905983    28.977444361             100               0                 Open   ;
 new-pipe-22          187                  185                     1843.6905983    12.980331711             100               0                 Open   ;
 new-pipe-28          239                  207                     1843.6905983    11.982755065             100               0                 Open   ;
 new-pipe-29          239                  247                     1843.6905983    14.701238792             100               0                 Open   ;
 new-pipe-30          255                  249                     1843.6905983    9.5375288659             100               0                 Open   ;
 new-pipe-31          257                  263                     1843.6905983    8.9345387987             100               0                 Open   ;

[PUMPS]
;ID                   Node1                Node2                Properties          
 10                   Lake                 10                   HEAD     1                      ;
 335                  60                   61                   HEAD     2                      ;

[VALVES]
;ID                   Node1                Node2                            Diameter Type              Setting           Minor Loss

[TAGS]
;type      name       tag       

[DEMANDS]
;ID        Demand     Pattern   

[STATUS]
;ID        Setting   
10         Closed    

[PATTERNS]
;ID        Multipliers

1 1.340000 1.940000 1.460000 1.440000 0.760000 0.920000
1 0.850000 1.070000 0.960000 1.100000 1.080000 1.190000
1 1.160000 1.080000 0.960000 0.830000 0.790000 0.740000
1 0.640000 0.640000 0.850000 0.960000 1.240000 1.670000

2 0.000000 0.000000 0.000000 0.000000 0.000000 1219.000000
2 0.000000 0.000000 0.000000 1866.000000 1836.000000 1818.000000
2 1818.000000 1822.000000 1822.000000 1817.000000 1824.000000 1816.000000
2 1833.000000 1817.000000 1830.000000 1814.000000 1840.000000 1859.000000

3 620.000000 620.000000 620.000000 620.000000 620.000000 360.000000
3 360.000000 0.000000 0.000000 0.000000 0.000000 360.000000
3 360.000000 360.000000 360.000000 360.000000 0.000000 0.000000
3 0.000000 0.000000 0.000000 0.000000 360.000000 360.000000

4 1637.000000 1706.000000 1719.000000 1719.000000 1791.000000 1819.000000
4 1777.000000 1842.000000 1815.000000 1825.000000 1856.000000 1801.000000
4 1819.000000 1733.000000 1664.000000 1620.000000 1613.000000 1620.000000
4 1616.000000 1647.000000 1627.000000 1627.000000 1671.000000 1668.000000

5 4439.000000 4531.000000 4511.000000 4582.000000 4531.000000 4582.000000
5 4572.000000 4613.000000 4643.000000 4643.000000 4592.000000 4613.000000
5 4531.000000 4521.000000 4449.000000 4439.000000 4449.000000 4460.000000
5 4439.000000 4419.000000 4368.000000 4399.000000 4470.000000 4480.000000

[CURVES]
;ID         X-Value      Y-Value     
;PUMP: 1
 1              0.000000   104.000000   ;
 1           2000.000000    92.000000   ;
 1           4000.000000    63.000000   ;

;PUMP: 2
 2              0.000000   200.000000   ;
 2           8000.000000   138.000000   ;
 2          14000.000000    86.000000   ;


[CONTROLS]
Pump 10 Open AT TIME 1
Pump 10 Closed AT TIME 15
Pump 10 Open AT TIME 25
Pump 10 Closed AT TIME 39
Pump 10 Open AT TIME 49
Pump 10 Closed AT TIME 63
Pump 10 Open AT TIME 73
Pump 10 Closed AT TIME 87
Pump 10 Open AT TIME 97
Pump 10 Closed AT TIME 111
Pump 10 Open AT TIME 121
Pump 10 Closed AT TIME 135
Pump 10 Open AT TIME 145
Pump 10 Closed AT TIME 159
Pump 335 Open IF Tank 1 below 17.1
Pump 335 Closed IF Tank 1 above 19.1
Pipe 330 Closed IF Tank 1 below 17.1
Pipe 330 Open IF Tank 1 above 19.1

[RULES]

[ENERGY]
GLOBAL EFFICIENCY      75.0000
GLOBAL PRICE           0.0000
DEMAND CHARGE          0.0000

[EMITTERS]
;ID        Flow coefficient

[QUALITY]

[SOURCES]
;Node      Type       Quality    Pattern   

[REACTIONS]
;Type           Pipe/Tank               Coefficient

 ORDER BULK 0
 ORDER TANK 0
 ORDER WALL 0
 GLOBAL BULK 0.0000    
 GLOBAL WALL 0.0000    
 LIMITING POTENTIAL 0.0000    
 ROUGHNESS CORRELATION 0.0000    

[MIXING]
;Tank ID             Model Fraction

[TIMES]
DURATION             168:00:00
HYDRAULIC TIMESTEP   00:15:00
QUALITY TIMESTEP     00:15:00
PATTERN TIMESTEP     01:00:00
PATTERN START        00:00:00
REPORT TIMESTEP      00:15:00
REPORT START         00:00:00
START CLOCKTIME      00:00:00 AM
RULE TIMESTEP        00:06:00
STATISTIC            NONE      

[REPORT]
STATUS     YES
SUMMARY    NO
PAGE       0

[OPTIONS]
UNITS                GPM                 
HEADLOSS             H-W                 
SPECIFIC GRAVITY     1
VISCOSITY            1
TRIALS               40
ACCURACY             0.001
CHECKFREQ            2
MAXCHECK             10
UNBALANCED           CONTINUE 10
PATTERN              1                   
DEMAND MULTIPLIER    1
EMITTER EXPONENT     0.5
QUALITY              Chemical mg/L
DIFFUSIVITY          1
TOLERANCE            0.01

[COORDINATES]
;Node      X-Coord    Y-Coord   
10                  9.000000000         27.850000000
20                 29.440000000         26.910000000
40                 27.020000000          9.810000000
50                 33.010000000          3.010000000
60                 23.900000000         29.940000000
601                23.000000000         29.490000000
61                 23.710000000         29.030000000
101                13.810000000         22.940000000
105                16.970000000         21.280000000
111                20.210000000         17.530000000
113                22.040000000         16.610000000
115                20.980000000         19.180000000
117                21.690000000         21.280000000
119                23.700000000         22.760000000
120                22.080000000         23.100000000
121                23.540000000         25.500000000
125                24.590000000         25.640000000
127                29.290000000         26.400000000
151                28.290000000         21.390000000
161                25.100000000         15.280000000
169                25.680000000         12.740000000
171                26.650000000         11.800000000
179                25.710000000         10.400000000
183                25.450000000         10.180000000
185                25.010000000          9.670000000
187                23.640000000         11.040000000
189                24.150000000         11.370000000
191                22.100000000         14.070000000
193                22.880000000         14.350000000
199                29.420000000          8.440000000
205                29.200000000          6.460000000
207                31.000000000          6.610000000
239                35.760000000          2.310000000
247                35.020000000          2.050000000
249                35.020000000          1.810000000
255                33.510000000          2.450000000
257                21.170000000         23.320000000
261                20.790000000         21.450000000
263                20.320000000         21.570000000
265                25.390000000         13.600000000
267                23.380000000         12.950000000
269                25.030000000         12.140000000
271                25.970000000         11.000000000
273                29.160000000          7.380000000
275                31.070000000          8.290000000
River              24.150000000         31.060000000
Lake                8.000000000         27.530000000
1                  27.460000000          9.840000000
2                  32.990000000          3.450000000
3                  29.410000000         27.270000000

[VERTICES]
;Link      X-Coord    Y-Coord   

[LABELS]
 8.00             29.42            "LAKE"
 25.00            31.10            "RIVER"

[BACKDROP]
DIMENSIONS    6.16    -1.55    46.70    32.61
UNITS    NONE
OFFSET    0.00    0.00

[END]
